/*--------------------------------*- C++ -*----------------------------------*\
| =========                 |                                                 |
| \\      /  F ield         | OpenFOAM: The Open Source CFD Toolbox           |
|  \\    /   O peration     | Version:  2.2.2                                 |
|   \\  /    A nd           | Web:      www.OpenFOAM.org                      |
|    \\/     M anipulation  |                                                 |
\*---------------------------------------------------------------------------*/
FoamFile
{
    version     2.0;
    format      ascii;
    class       dictionary;
    object      collapseDict;
}
// * * * * * * * * * * * * * * * * * * * * * * * * * * * * * * * * * * * * * //

// If on, after collapsing check the quality of the mesh. If bad faces are
// generated then redo the collapsing with stricter filtering.
controlMeshQuality      off;


collapseEdgesCoeffs
{
    // Edges shorter than this absolute value will be merged
    minimumEdgeLength   1e-4;

    // The maximum angle between two edges that share a point attached to
    // no other edges
    maximumMergeAngle   60;
}