/*--------------------------------*- C++ -*----------------------------------*\
| =========                 |                                                 |
| \\      /  F ield         | OpenFOAM: The Open Source CFD Toolbox           |
|  \\    /   O peration     | Version:  v2012                                 |
|   \\  /    A nd           | Website:  www.openfoam.com                      |
|    \\/     M anipulation  |                                                 |
\*---------------------------------------------------------------------------*/
FoamFile
{
    version     2.0;
    format      ascii;
    class       dictionary;
    location    "system";
    object      controlDict;
}
// * * * * * * * * * * * * * * * * * * * * * * * * * * * * * * * * * * * * * //

application     buoyantSimpleFoam;

startFrom       startTime;

startTime       1000;

stopAt          endTime;

endTime         1000;

deltaT          1;

writeControl    timeStep;

writeInterval   100;

purgeWrite      0;

writeFormat     ascii;

writePrecision  6;

writeCompression off;

timeFormat      general;

timePrecision   6;

runTimeModifiable true;

libs
(
    "libfluent2DMeshToFoam.so"
);

wallHeatFlux
{

    type            wallHeatFlux;
    libs            (fieldFunctionObjects);
    patches     (inner);

    // Optional (inherited) entries
    //writePrecision  8;
    //writeToFile     true;
    //enabled         true;
    //log             true;
    //timeStart       1000;
    //timeEnd         1000;
    //executeControl  timeStep;
    //executeInterval 1;
    //writeControl    timeStep;
    //writeInterval   1;
}



// ************************************************************************* //
